!-Generator IDFEditor 1.53
!-Option OriginalOrderTop UseSpecialFormat

!-NOTE: All comments with '!-' are ignored by the IDFEditor and are generated automatically.
!-      Use '!' comments if they need to be retained when using the IDFEditor.

Output:Variable,*,Zone Packaged Terminal Air Conditioner Total Cooling Energy ,Monthly;

Output:Table:Monthly,
    CONSUMO ENERGIA,         !- Name
    2,                       !- Digits After Decimal
    Electricity:HVAC ,       !- Variable or Meter 1 Name
    SumOrAverage,            !- Aggregation Type for Variable or Meter 1
    Zone Packaged Terminal Air Conditioner Total Cooling Energy ,  !- Variable or Meter 2 Name
    SumOrAverage;            !- Aggregation Type for Variable or Meter 2



Building,Brazilian Social Housing,0,City,0.04,0.40,FullInteriorAndExterior,25,6;
HVACTemplate:Thermostat,Quarto1,,,12HORAS,;
HVACTemplate:Thermostat,Quarto2,,,12HORAS,;
ZoneVentilation:DesignFlowRate,VN_Q1,zone_2,VN_12,AirChanges/Hour,,,,10,Natural,,1,1,,,,22,,28,,0,,18,,32,,13.8;
ZoneVentilation:DesignFlowRate,VN_Q2,zone_3,VN_12,AirChanges/Hour,,,,10,Natural,,1,1,,,,22,,28,,0,,18,,32,,13.8;
FenestrationSurface:Detailed,janela_sala,Door,janela_metalon,PAREDE_SL_EXT_OESTE,,autocalculate,,1,4,0,2.23,2.1,0,2.23,1.1,0,1.23,1.1,0,1.23,2.1;
FenestrationSurface:Detailed,janela_Q1,Door,janela_metalon,PAREDE_Q1_EXT_OESTE,,autocalculate,,1,4,0,5.45,2.1,0,5.45,1.1,0,4.45,1.1,0,4.45,2.1;
FenestrationSurface:Detailed,janela_Q2,Door,janela_metalon,PAREDE_Q2_EXT_LESTE,,autocalculate,,1,4,5.65,4.45,2.1,5.65,4.45,1.1,5.65,5.45,1.1,5.65,5.45,2.1;
Construction,parede_convencional,reboco_argamassa,bloco_ceramico,Ar paredes,bloco_ceramico,Ar paredes,bloco_ceramico,reboco_argamassa;
Construction,cobertura_convencional,telha_ceramica;



Schedule:Compact,
    VN_12,                   !- Name
    Fraction,                !- Schedule Type Limits Name
    Through: 12/31,          !- Field 1
    For: alldays,            !- Field 2
    Until: 07:00, 0,         !- Field 4
    Until: 19:00, .5,        !- Field 6
    Until: 24:00, 0;         !- Field 8

Schedule:Day:Hourly,
    hora_off,                !- Name
    Fraction,                !- Schedule Type Limits Name
    0,                       !- Hour 1
    0,                       !- Hour 2
    0,                       !- Hour 3
    0,                       !- Hour 4
    0,                       !- Hour 5
    0,                       !- Hour 6
    0,                       !- Hour 7
    0,                       !- Hour 8
    0,                       !- Hour 9
    0,                       !- Hour 10
    0,                       !- Hour 11
    0,                       !- Hour 12
    0,                       !- Hour 13
    0,                       !- Hour 14
    0,                       !- Hour 15
    0,                       !- Hour 16
    0,                       !- Hour 17
    0,                       !- Hour 18
    0,                       !- Hour 19
    0,                       !- Hour 20
    0,                       !- Hour 21
    0,                       !- Hour 22
    0,                       !- Hour 23
    0;                       !- Hour 24

Schedule:Week:Daily,
    dia_off,                 !- Name
    hora_off,                !- Sunday Schedule:Day Name
    hora_off,                !- Monday Schedule:Day Name
    hora_off,                !- Tuesday Schedule:Day Name
    hora_off,                !- Wednesday Schedule:Day Name
    hora_off,                !- Thursday Schedule:Day Name
    hora_off,                !- Friday Schedule:Day Name
    hora_off,                !- Saturday Schedule:Day Name
    hora_off,                !- Holiday Schedule:Day Name
    hora_off,                !- SummerDesignDay Schedule:Day Name
    hora_off,                !- WinterDesignDay Schedule:Day Name
    hora_off,                !- CustomDay1 Schedule:Day Name
    hora_off;                !- CustomDay2 Schedule:Day Name

Schedule:Year,
    AQUE_ANO,                !- Name
    Fraction,                !- Schedule Type Limits Name
    dia_off,                 !- Schedule:Week Name 1
    1,                       !- Start Month 1
    1,                       !- Start Day 1
    12,                      !- End Month 1
    31;                      !- End Day 1

HVACTemplate:Zone:PTAC,
    zone_2,                  !- Zone Name
    Quarto1,                 !- Template Thermostat Name
    autosize,                !- Cooling Supply Air Flow Rate {m3/s}
    autosize,                !- Heating Supply Air Flow Rate {m3/s}
    ,                        !- No Load Supply Air Flow Rate {m3/s}
    ,                        !- Zone Heating Sizing Factor
    ,                        !- Zone Cooling Sizing Factor
    Flow/Person,             !- Outdoor Air Method
    0.00944,                 !- Outdoor Air Flow Rate per Person {m3/s}
    ,                        !- Outdoor Air Flow Rate per Zone Floor Area {m3/s-m2}
    ,                        !- Outdoor Air Flow Rate per Zone {m3/s}
    ,                        !- System Availability Schedule Name
    ,                        !- Supply Fan Operating Mode Schedule Name
    DrawThrough,             !- Supply Fan Placement
    0.7,                     !- Supply Fan Total Efficiency
    75,                      !- Supply Fan Delta Pressure {Pa}
    0.9,                     !- Supply Fan Motor Efficiency
    SingleSpeedDX,           !- Cooling Coil Type
    ,                        !- Cooling Coil Availability Schedule Name
    autosize,                !- Cooling Coil Gross Rated Total Capacity {W}
    autosize,                !- Cooling Coil Gross Rated Sensible Heat Ratio
    3,                       !- Cooling Coil Gross Rated Cooling COP {W/W}
    Electric,                !- Heating Coil Type
    AQUE_ANO,                !- Heating Coil Availability Schedule Name
    autosize,                !- Heating Coil Capacity {W}
    0.8,                     !- Gas Heating Coil Efficiency
    ,                        !- Gas Heating Coil Parasitic Electric Load {W}
    ,                        !- Dedicated Outdoor Air System Name
    SupplyAirTemperature,    !- Zone Cooling Design Supply Air Temperature Input Method
    14,                      !- Zone Cooling Design Supply Air Temperature {C}
    11.11,                   !- Zone Cooling Design Supply Air Temperature Difference {deltaC}
    SupplyAirTemperature,    !- Zone Heating Design Supply Air Temperature Input Method
    50,                      !- Zone Heating Design Supply Air Temperature {C}
    30,                      !- Zone Heating Design Supply Air Temperature Difference {deltaC}
    ,                        !- Design Specification Outdoor Air Object Name
    ,                        !- Design Specification Zone Air Distribution Object Name
    None,                    !- Baseboard Heating Type
    ,                        !- Baseboard Heating Availability Schedule Name
    autosize,                !- Baseboard Heating Capacity {W}
    None;                    !- Capacity Control Method



HVACTemplate:Zone:PTAC,
    zone_3,                  !- Zone Name
    Quarto2,                !- Template Thermostat Name
    autosize,                !- Cooling Supply Air Flow Rate {m3/s}
    autosize,                !- Heating Supply Air Flow Rate {m3/s}
    ,                        !- No Load Supply Air Flow Rate {m3/s}
    ,                        !- Zone Heating Sizing Factor
    ,                        !- Zone Cooling Sizing Factor
    Flow/Person,             !- Outdoor Air Method
    0.00944,                 !- Outdoor Air Flow Rate per Person {m3/s}
    ,                        !- Outdoor Air Flow Rate per Zone Floor Area {m3/s-m2}
    ,                        !- Outdoor Air Flow Rate per Zone {m3/s}
    ,                        !- System Availability Schedule Name
    ,                        !- Supply Fan Operating Mode Schedule Name
    DrawThrough,             !- Supply Fan Placement
    0.7,                     !- Supply Fan Total Efficiency
    75,                      !- Supply Fan Delta Pressure {Pa}
    0.9,                     !- Supply Fan Motor Efficiency
    SingleSpeedDX,           !- Cooling Coil Type
    ,                        !- Cooling Coil Availability Schedule Name
    autosize,                !- Cooling Coil Gross Rated Total Capacity {W}
    autosize,                !- Cooling Coil Gross Rated Sensible Heat Ratio
    3,                       !- Cooling Coil Gross Rated Cooling COP {W/W}
    Electric,                !- Heating Coil Type
    AQUE_ANO,                !- Heating Coil Availability Schedule Name
    autosize,                !- Heating Coil Capacity {W}
    0.8,                     !- Gas Heating Coil Efficiency
    ,                        !- Gas Heating Coil Parasitic Electric Load {W}
    ,                        !- Dedicated Outdoor Air System Name
    SupplyAirTemperature,    !- Zone Cooling Design Supply Air Temperature Input Method
    14,                      !- Zone Cooling Design Supply Air Temperature {C}
    11.11,                   !- Zone Cooling Design Supply Air Temperature Difference {deltaC}
    SupplyAirTemperature,    !- Zone Heating Design Supply Air Temperature Input Method
    50,                      !- Zone Heating Design Supply Air Temperature {C}
    30,                      !- Zone Heating Design Supply Air Temperature Difference {deltaC}
    ,                        !- Design Specification Outdoor Air Object Name
    ,                        !- Design Specification Zone Air Distribution Object Name
    None,                    !- Baseboard Heating Type
    ,                        !- Baseboard Heating Availability Schedule Name
    autosize,                !- Baseboard Heating Capacity {W}
    None;                    !- Capacity Control Method

Sizing:Parameters,
    1,                       !- Heating Sizing Factor
    1;                       !- Cooling Sizing Factor

Schedule:Compact,
    VN_24,                   !- Name
    Fraction,                !- Schedule Type Limits Name
    Through: 12/31,          !- Field 1
    For: alldays,            !- Field 2
    Until: 24:00, 0;         !- Field 4

Schedule:Compact,
    0HORAS,                  !- Name
    Temperatura,             !- Schedule Type Limits Name
    Through: 12/31,          !- Field 1
    For: alldays,            !- Field 2
    Until: 24:00,  60;       !- Field 4
	
Schedule:Compact,
    VN_6,                    !- Name
    Fraction,                !- Schedule Type Limits Name
    Through: 12/31,          !- Field 1
    For: alldays,            !- Field 2
    Until: 4:00, 0,          !- Field 4
    Until: 22:00, .5,        !- Field 6
    Until: 24:00, 0;         !- Field 8

Schedule:Compact,
    VN_3,                    !- Name
    Temperatura,             !- Schedule Type Limits Name
    Through: 12/31,          !- Field 1
    For: alldays,            !- Field 2
    Until: 21:00, .5,        !- Field 4
    Until 24:00,             !- Field 5
    0;                       !- Field 6


ScheduleTypeLimits,
    Fraction,                !- Name
    0,                       !- Lower Limit Value
    1,                       !- Upper Limit Value
    Continuous,              !- Numeric Type
    Dimensionless;           !- Unit Type

ScheduleTypeLimits,
    On/Off,                  !- Name
    0,                       !- Lower Limit Value
    1,                       !- Upper Limit Value
    Discrete,                !- Numeric Type
    Dimensionless;           !- Unit Type

Schedule:Compact,
    VN_0,                    !- Name
    Fraction,                !- Schedule Type Limits Name
    Through: 12/31,          !- Field 1
    For: alldays,            !- Field 2
    Until: 24:00, .5;        !- Field 4


Site:GroundTemperature:BuildingSurface,29,28.7,28.2,27.8,27,26.5,26.4,26.6,27.2,27.8,28.4,28.9;
Site:GroundTemperature:Deep,28.3,28.3,28.2,28,27.6,27.3,27.1,27,27.2,27.4,27.8,28.1;

Output:Diagnostics,
    DisplayExtraWarnings;    !- Key 1

Schedule:Compact,
    atividade_pessoa,        !- Name
    Positive,                !- Schedule Type Limits Name
    Through: 12/31,          !- Field 1
    For: alldays,            !- Field 2
    Until: 24:00, 108;       !- Field 4

ScheduleTypeLimits,
    Positive,                !- Name
    0,                       !- Lower Limit Value
    ,                        !- Upper Limit Value
    Continuous,              !- Numeric Type
    Dimensionless;           !- Unit Type

Output:Variable,*,Site Outdoor Air Drybulb Temperature,Monthly;
Output:Variable,*,Zone Mean Air Temperature,Monthly;

Material:AirGap,
    Ar paredes,              !- Name
    0.16;                    !- Thermal Resistance {m2-K/W}

Schedule:Compact,
    ocupacao,                !- Name
    Qualquer,                !- Schedule Type Limits Name
    Through: 12/31,          !- Field 1
    For: alldays,            !- Field 2
    Until: 24:00, 1;         !- Field 4

People,
    Ocupacao1,               !- Name
    zone_1,                  !- Zone or ZoneList or Space or SpaceList Name
    ocupacao,                !- Number of People Schedule Name
    People,                  !- Number of People Calculation Method
    4,                       !- Number of People
    0.111,                   !- People per Floor Area {person/m2}
    ,                        !- Floor Area per Person {m2/person}
    0.6,                     !- Fraction Radiant
    autocalculate,           !- Sensible Heat Fraction
    atividade_pessoa,        !- Activity Level Schedule Name
    0.0000000382,            !- Carbon Dioxide Generation Rate {m3/s-W}
    No,                      !- Enable ASHRAE 55 Comfort Warnings
    ZoneAveraged,            !- Mean Radiant Temperature Calculation Type
    ,                        !- Surface Name/Angle Factor List Name
    ,                        !- Work Efficiency Schedule Name
    ClothingInsulationSchedule,  !- Clothing Insulation Calculation Method
    ,                        !- Clothing Insulation Calculation Method Schedule Name
    ,                        !- Clothing Insulation Schedule Name
    ,                        !- Air Velocity Schedule Name
    ,                        !- Thermal Comfort Model 1 Type
    ,                        !- Thermal Comfort Model 2 Type
    ,                        !- Thermal Comfort Model 3 Type
    ,                        !- Thermal Comfort Model 4 Type
    ,                        !- Thermal Comfort Model 5 Type
    ,                        !- Thermal Comfort Model 6 Type
    ,                        !- Thermal Comfort Model 7 Type
    ,                        !- Ankle Level Air Velocity Schedule Name
    15.56,                   !- Cold Stress Temperature Threshold {C}
    30;                      !- Heat Stress Temperature Threshold {C}

People,
    Ocupacao2,               !- Name
    zone_2,                  !- Zone or ZoneList or Space or SpaceList Name
    ocupacao,                !- Number of People Schedule Name
    People,                  !- Number of People Calculation Method
    4,                       !- Number of People
    0.111,                   !- People per Floor Area {person/m2}
    ,                        !- Floor Area per Person {m2/person}
    0.6,                     !- Fraction Radiant
    autocalculate,           !- Sensible Heat Fraction
    atividade_pessoa,        !- Activity Level Schedule Name
    0.0000000382,            !- Carbon Dioxide Generation Rate {m3/s-W}
    No,                      !- Enable ASHRAE 55 Comfort Warnings
    ZoneAveraged,            !- Mean Radiant Temperature Calculation Type
    ,                        !- Surface Name/Angle Factor List Name
    ,                        !- Work Efficiency Schedule Name
    ClothingInsulationSchedule,  !- Clothing Insulation Calculation Method
    ,                        !- Clothing Insulation Calculation Method Schedule Name
    ,                        !- Clothing Insulation Schedule Name
    ,                        !- Air Velocity Schedule Name
    ,                        !- Thermal Comfort Model 1 Type
    ,                        !- Thermal Comfort Model 2 Type
    ,                        !- Thermal Comfort Model 3 Type
    ,                        !- Thermal Comfort Model 4 Type
    ,                        !- Thermal Comfort Model 5 Type
    ,                        !- Thermal Comfort Model 6 Type
    ,                        !- Thermal Comfort Model 7 Type
    ,                        !- Ankle Level Air Velocity Schedule Name
    15.56,                   !- Cold Stress Temperature Threshold {C}
    30;                      !- Heat Stress Temperature Threshold {C}

People,
    Ocupacao3,               !- Name
    zone_3,                  !- Zone or ZoneList or Space or SpaceList Name
    ocupacao,                !- Number of People Schedule Name
    People,                  !- Number of People Calculation Method
    4,                       !- Number of People
    0.111,                   !- People per Floor Area {person/m2}
    ,                        !- Floor Area per Person {m2/person}
    0.6,                     !- Fraction Radiant
    autocalculate,           !- Sensible Heat Fraction
    atividade_pessoa,        !- Activity Level Schedule Name
    0.0000000382,            !- Carbon Dioxide Generation Rate {m3/s-W}
    No,                      !- Enable ASHRAE 55 Comfort Warnings
    ZoneAveraged,            !- Mean Radiant Temperature Calculation Type
    ,                        !- Surface Name/Angle Factor List Name
    ,                        !- Work Efficiency Schedule Name
    ClothingInsulationSchedule,  !- Clothing Insulation Calculation Method
    ,                        !- Clothing Insulation Calculation Method Schedule Name
    ,                        !- Clothing Insulation Schedule Name
    ,                        !- Air Velocity Schedule Name
    ,                        !- Thermal Comfort Model 1 Type
    ,                        !- Thermal Comfort Model 2 Type
    ,                        !- Thermal Comfort Model 3 Type
    ,                        !- Thermal Comfort Model 4 Type
    ,                        !- Thermal Comfort Model 5 Type
    ,                        !- Thermal Comfort Model 6 Type
    ,                        !- Thermal Comfort Model 7 Type
    ,                        !- Ankle Level Air Velocity Schedule Name
    15.56,                   !- Cold Stress Temperature Threshold {C}
    30;                      !- Heat Stress Temperature Threshold {C}

People,
    Ocupacao4,               !- Name
    zone_4,                  !- Zone or ZoneList or Space or SpaceList Name
    ocupacao,                !- Number of People Schedule Name
    People,                  !- Number of People Calculation Method
    4,                       !- Number of People
    0.111,                   !- People per Floor Area {person/m2}
    ,                        !- Floor Area per Person {m2/person}
    0.6,                     !- Fraction Radiant
    autocalculate,           !- Sensible Heat Fraction
    atividade_pessoa,        !- Activity Level Schedule Name
    0.0000000382,            !- Carbon Dioxide Generation Rate {m3/s-W}
    No,                      !- Enable ASHRAE 55 Comfort Warnings
    ZoneAveraged,            !- Mean Radiant Temperature Calculation Type
    ,                        !- Surface Name/Angle Factor List Name
    ,                        !- Work Efficiency Schedule Name
    ClothingInsulationSchedule,  !- Clothing Insulation Calculation Method
    ,                        !- Clothing Insulation Calculation Method Schedule Name
    ,                        !- Clothing Insulation Schedule Name
    ,                        !- Air Velocity Schedule Name
    ,                        !- Thermal Comfort Model 1 Type
    ,                        !- Thermal Comfort Model 2 Type
    ,                        !- Thermal Comfort Model 3 Type
    ,                        !- Thermal Comfort Model 4 Type
    ,                        !- Thermal Comfort Model 5 Type
    ,                        !- Thermal Comfort Model 6 Type
    ,                        !- Thermal Comfort Model 7 Type
    ,                        !- Ankle Level Air Velocity Schedule Name
    15.56,                   !- Cold Stress Temperature Threshold {C}
    30;                      !- Heat Stress Temperature Threshold {C}

People,
    Ocupacao5,               !- Name
    zone_5,                  !- Zone or ZoneList or Space or SpaceList Name
    ocupacao,                !- Number of People Schedule Name
    People,                  !- Number of People Calculation Method
    4,                       !- Number of People
    0.111,                   !- People per Floor Area {person/m2}
    ,                        !- Floor Area per Person {m2/person}
    0.6,                     !- Fraction Radiant
    autocalculate,           !- Sensible Heat Fraction
    atividade_pessoa,        !- Activity Level Schedule Name
    0.0000000382,            !- Carbon Dioxide Generation Rate {m3/s-W}
    No,                      !- Enable ASHRAE 55 Comfort Warnings
    ZoneAveraged,            !- Mean Radiant Temperature Calculation Type
    ,                        !- Surface Name/Angle Factor List Name
    ,                        !- Work Efficiency Schedule Name
    ClothingInsulationSchedule,  !- Clothing Insulation Calculation Method
    ,                        !- Clothing Insulation Calculation Method Schedule Name
    ,                        !- Clothing Insulation Schedule Name
    ,                        !- Air Velocity Schedule Name
    ,                        !- Thermal Comfort Model 1 Type
    ,                        !- Thermal Comfort Model 2 Type
    ,                        !- Thermal Comfort Model 3 Type
    ,                        !- Thermal Comfort Model 4 Type
    ,                        !- Thermal Comfort Model 5 Type
    ,                        !- Thermal Comfort Model 6 Type
    ,                        !- Thermal Comfort Model 7 Type
    ,                        !- Ankle Level Air Velocity Schedule Name
    15.56,                   !- Cold Stress Temperature Threshold {C}
    30;                      !- Heat Stress Temperature Threshold {C}

Schedule:Compact,
    24HORAS,                 !- Name
    Temperatura,             !- Schedule Type Limits Name
    Through: 12/31,          !- Field 1
    For: alldays,            !- Field 2
    Until: 24:00, 23.9;      !- Field 4

ScheduleTypeLimits,
    Temperatura,             !- Name
    -60,                     !- Lower Limit Value
    200,                     !- Upper Limit Value
    Continuous,              !- Numeric Type
    Dimensionless;           !- Unit Type

Schedule:Compact,
    12HORAS,                 !- Name
    Temperatura,             !- Schedule Type Limits Name
    Through: 12/31,          !- Field 1
    For: alldays,            !- Field 2
    Until: 7:00, 23.9,       !- Field 4
    Until: 19:00, 60,        !- Field 6
    Until: 24:00, 23.9;      !- Field 8

Schedule:Compact,
    3HORAS,                  !- Name
    Temperatura,             !- Schedule Type Limits Name
    Through: 12/31,          !- Field 1
    For: alldays,            !- Field 2
    Until: 21:00, 50,        !- Field 4
    Until 24:00,             !- Field 5
    23.9;                    !- Field 6

Schedule:Compact,
    6HORAS,                  !- Name
    Temperatura,             !- Schedule Type Limits Name
    Through: 12/31,          !- Field 1
    For: alldays,            !- Field 2
    Until: 4:00, 23.9,       !- Field 4
    Until: 22:00, 50,        !- Field 6
    Until: 24:00, 23.9;      !- Field 8

SizingPeriod:WeatherFileConditionType,
    Wet Season,              !- Name
    WetSeason,               !- Period Selection
    Monday,                  !- Day of Week for Start Day
    Yes,                     !- Use Weather File Daylight Saving Period
    Yes;                     !- Use Weather File Rain and Snow Indicators

SizingPeriod:WeatherFileConditionType,
    Dry Season,              !- Name
    DrySeason,               !- Period Selection
    Monday,                  !- Day of Week for Start Day
    Yes,                     !- Use Weather File Daylight Saving Period
    Yes;                     !- Use Weather File Rain and Snow Indicators

SizingPeriod:WeatherFileConditionType,
    Tropical Cold,           !- Name
    TropicalCold,            !- Period Selection
    WinterDesignDay,         !- Day of Week for Start Day
    Yes,                     !- Use Weather File Daylight Saving Period
    Yes;                     !- Use Weather File Rain and Snow Indicators

ScheduleTypeLimits,
    Qualquer,                !- Name
    ,                        !- Lower Limit Value
    ,                        !- Upper Limit Value
    Continuous,              !- Numeric Type
    Dimensionless;           !- Unit Type

Material,
    reboco_argamassa,        !- Name
    Rough,                   !- Roughness
    0.0250,                  !- Thickness {m}
    1.15000,                 !- Conductivity {W/m-K}
    1800.000,                !- Density {kg/m3}
    1000.00,                 !- Specific Heat {J/kg-K}
    0.900000,                !- Thermal Absorptance
    0.200000,                !- Solar Absorptance
    0.600000;                !- Visible Absorptance

Material,
    madeira,                 !- Name
    Rough,                   !- Roughness
    0.030,                   !- Thickness {m}
    0.29000,                 !- Conductivity {W/m-K}
    800.000,                 !- Density {kg/m3}
    1340.00,                 !- Specific Heat {J/kg-K}
    0.900000,                !- Thermal Absorptance
    0.200000,                !- Solar Absorptance
    0.600000;                !- Visible Absorptance

Material,
    bloco_ceramico,          !- Name
    Rough,                   !- Roughness
    0.006,                   !- Thickness {m}
    0.90,                    !- Conductivity {W/m-K}
    1300.000,                !- Density {kg/m3}
    0920.00,                 !- Specific Heat {J/kg-K}
    0.900000,                !- Thermal Absorptance
    0.600000,                !- Solar Absorptance
    0.600000;                !- Visible Absorptance

Material,
    telha_ceramica,          !- Name
    Rough,                   !- Roughness
    0.010,                   !- Thickness {m}
    0.90,                    !- Conductivity {W/m-K}
    1300.000,                !- Density {kg/m3}
    0920.00,                 !- Specific Heat {J/kg-K}
    0.900000,                !- Thermal Absorptance
    0.600000,                !- Solar Absorptance
    0.600000;                !- Visible Absorptance

Material:AirGap,
    Ar cobertura,            !- Name
    0.21;                    !- Thermal Resistance {m2-K/W}

Material,
    concreto_10cm,           !- Name
    Rough,                   !- Roughness
    0.10000,                 !- Thickness {m}
    1.75000,                 !- Conductivity {W/m-K}
    2200.00,                 !- Density {kg/m3}
    1000.00,                 !- Specific Heat {J/kg-K}
    0.900000,                !- Thermal Absorptance
    0.600000,                !- Solar Absorptance
    0.600000;                !- Visible Absorptance

Material,
    concreto_4cm,            !- Name
    Rough,                   !- Roughness
    0.040000,                !- Thickness {m}
    1.75000,                 !- Conductivity {W/m-K}
    2200.00,                 !- Density {kg/m3}
    1000.00,                 !- Specific Heat {J/kg-K}
    0.900000,                !- Thermal Absorptance
    0.600000,                !- Solar Absorptance
    0.600000;                !- Visible Absorptance

Material,
    laderocha_38mm,          !- Name
    MediumRough,             !- Roughness
    0.03800,                 !- Thickness {m}
    0.04500,                 !- Conductivity {W/m-K}
    20.0000,                 !- Density {kg/m3}
    750.00,                  !- Specific Heat {J/kg-K}
    0.900000,                !- Thermal Absorptance
    0.600000,                !- Solar Absorptance
    0.600000;                !- Visible Absorptance

Material,
    laderocha_50mm,          !- Name
    MediumRough,             !- Roughness
    0.0500,                  !- Thickness {m}
    0.04500,                 !- Conductivity {W/m-K}
    20.0000,                 !- Density {kg/m3}
    750.00,                  !- Specific Heat {J/kg-K}
    0.900000,                !- Thermal Absorptance
    0.600000,                !- Solar Absorptance
    0.600000;                !- Visible Absorptance

Material,
    bloco_concreto,          !- Name
    Rough,                   !- Roughness
    0.02,                    !- Thickness {m}
    1.75,                    !- Conductivity {W/m-K}
    2200,                    !- Density {kg/m3}
    1000,                    !- Specific Heat {J/kg-K}
    0.900000,                !- Thermal Absorptance
    0.600000,                !- Solar Absorptance
    0.600000;                !- Visible Absorptance

Material,
    poliestireno_expandido,  !- Name
    MediumRough,             !- Roughness
    0.0800,                  !- Thickness {m}
    0.04000,                 !- Conductivity {W/m-K}
    15.000,                  !- Density {kg/m3}
    1420.00,                 !- Specific Heat {J/kg-K}